rede ufpa/trafodoseletropostos.dss
new transformer.trafoeletroposto1 phases=3 windings=2 %imag=2.5 %loadloss=1.3 %noloadloss=0.346 xhl=3.236
~ wdg=1 bus=476       conn=delta kv=13.8    kva=112.5         
~ wdg=2 bus=476eletabc.1.2.3.4       conn=Wye kv=0.22    kva=112.5

new transformer.trafoeletroposto2 phases=3 windings=2 %imag=2.5 %loadloss=1.3 %noloadloss=0.346 xhl=3.236
~ wdg=1 bus=485       conn=delta kv=13.8    kva=112.5         
~ wdg=2 bus=485eletabc.1.2.3.4       conn=Wye kv=0.22    kva=112.5

new transformer.trafoeletroposto3 phases=3 windings=2 %imag=2.5 %loadloss=1.3 %noloadloss=0.346 xhl=3.236
~ wdg=1 bus=452       conn=delta kv=13.8    kva=112.5         
~ wdg=2 bus=452eletabc.1.2.3.4       conn=Wye kv=0.22    kva=112.5

new transformer.trafoeletroposto4 phases=3 windings=2 %imag=2.5 %loadloss=1.3 %noloadloss=0.346 xhl=3.236
~ wdg=1 bus=426       conn=delta kv=13.8    kva=112.5         
~ wdg=2 bus=426eletabc.1.2.3.4       conn=Wye kv=0.22    kva=112.5

new transformer.trafoeletroposto5 phases=3 windings=2 %imag=2.5 %loadloss=1.3 %noloadloss=0.346 xhl=3.236
~ wdg=1 bus=352       conn=delta kv=13.8    kva=112.5          
~ wdg=2 bus=352eletabc.1.2.3.4       conn=Wye kv=0.22    kva=112.5

new transformer.trafoeletroposto6 phases=3 windings=2 %imag=2.5 %loadloss=1.3 %noloadloss=0.346 xhl=3.236
~ wdg=1 bus=358       conn=delta kv=13.8    kva=112.5         
~ wdg=2 bus=358eletabc.1.2.3.4       conn=Wye kv=0.22    kva=112.5

new transformer.trafoeletroposto7 phases=3 windings=2 %imag=2.5 %loadloss=1.3 %noloadloss=0.346 xhl=3.236
~ wdg=1 bus=339       conn=delta kv=13.8    kva=112.5         
~ wdg=2 bus=339eletabc.1.2.3.4       conn=Wye kv=0.22    kva=112.5

new transformer.trafoeletroposto8 phases=3 windings=2 %imag=2.5 %loadloss=1.3 %noloadloss=0.346 xhl=3.236
~ wdg=1 bus=310       conn=delta kv=13.8    kva=112.5         
~ wdg=2 bus=310eletabc.1.2.3.4       conn=Wye kv=0.22    kva=112.5

new transformer.trafoeletroposto9 phases=3 windings=2 %imag=2.5 %loadloss=1.3 %noloadloss=0.346 xhl=3.236
~ wdg=1 bus=317       conn=delta kv=13.8    kva=112.5         
~ wdg=2 bus=317eletabc.1.2.3.4       conn=Wye kv=0.22    kva=112.5

new transformer.trafoeletroposto10 phases=3 windings=2 %imag=2.5 %loadloss=1.3 %noloadloss=0.346 xhl=3.236
~ wdg=1 bus=323       conn=delta kv=13.8    kva=112.5         
~ wdg=2 bus=323eletabc.1.2.3.4       conn=Wye kv=0.22    kva=112.5

new transformer.trafoeletroposto11 phases=3 windings=2 %imag=2.5 %loadloss=1.3 %noloadloss=0.346 xhl=3.236
~ wdg=1 bus=102       conn=delta kv=13.8    kva=112.5         
~ wdg=2 bus=102eletabc.1.2.3.4       conn=Wye kv=0.22    kva=112.5

new transformer.trafoeletroposto12 phases=3 windings=2 %imag=2.5 %loadloss=1.3 %noloadloss=0.346 xhl=3.236
~ wdg=1 bus=116       conn=delta kv=13.8    kva=112.5         
~ wdg=2 bus=116eletabc.1.2.3.4       conn=Wye kv=0.22    kva=112.5

new transformer.trafoeletroposto13 phases=3 windings=2 %imag=2.5 %loadloss=1.3 %noloadloss=0.346 xhl=3.236
~ wdg=1 bus=139       conn=delta kv=13.8    kva=112.5         
~ wdg=2 bus=139eletabc.1.2.3.4       conn=Wye kv=0.22    kva=112.5

new transformer.trafoeletroposto14 phases=3 windings=2 %imag=2.5 %loadloss=1.3 %noloadloss=0.346 xhl=3.236
~ wdg=1 bus=132       conn=delta kv=13.8    kva=112.5         
~ wdg=2 bus=132eletabc.1.2.3.4       conn=Wye kv=0.22    kva=112.5

new transformer.trafoeletroposto15 phases=3 windings=2 %imag=2.5 %loadloss=1.3 %noloadloss=0.346 xhl=3.236
~ wdg=1 bus=157       conn=delta kv=13.8    kva=112.5         
~ wdg=2 bus=157eletabc.1.2.3.4       conn=Wye kv=0.22    kva=112.5

new transformer.trafoeletroposto16 phases=3 windings=2 %imag=2.5 %loadloss=1.3 %noloadloss=0.346 xhl=3.236
~ wdg=1 bus=213       conn=delta kv=13.8    kva=112.5         
~ wdg=2 bus=213eletabc.1.2.3.4       conn=Wye kv=0.22    kva=112.5

new transformer.trafoeletroposto17 phases=3 windings=2 %imag=2.5 %loadloss=1.3 %noloadloss=0.346 xhl=3.236
~ wdg=1 bus=211       conn=delta kv=13.8    kva=112.5         
~ wdg=2 bus=211eletabc.1.2.3.4       conn=Wye kv=0.22    kva=112.5

new transformer.trafoeletroposto18 phases=3 windings=2 %imag=2.5 %loadloss=1.3 %noloadloss=0.346 xhl=3.236
~ wdg=1 bus=227       conn=delta kv=13.8    kva=112.5         
~ wdg=2 bus=227eletabc.1.2.3.4       conn=Wye kv=0.22    kva=112.5

new transformer.trafoeletroposto19 phases=3 windings=2 %imag=2.5 %loadloss=1.3 %noloadloss=0.346 xhl=3.236
~ wdg=1 bus=233       conn=delta kv=13.8    kva=112.5         
~ wdg=2 bus=233eletabc.1.2.3.4       conn=Wye kv=0.22    kva=112.5