rede ufpa/UFPA_Losses.Txt

LOSSES REPORT

Power Delivery Element Loss Report

Element                  kW Losses    % of Power   kvar Losses

"Line.LINHAPRIMARIA"                       0.05330,     0.00     0.0588509
"Line.AL100101"                            0.08212,     0.00     0.122147
"Line.AL101102"                            0.22760,     0.01     0.205377
"Line.AL102103"                            0.22987,     0.01     0.109732
"Line.AL103103A"                           0.00547,     0.01     0.412856
"Line.AL103104"                            0.24103,     0.01     0.102283
"Line.AL104105"                            0.00672,     0.00     -0.0328187
"Line.AL105106"                            0.00018,      0.0     -0.0156961
"Line.AL105107"                            0.00268,     0.00     -0.0210471
"Line.AL107108"                            0.00280,     0.00     -0.0390505
"Line.AL108109"                            0.00360,     0.00     -0.0495779
"Line.AL109109A"                           0.00322,     0.00     0.228964
"Line.AL104110"                            0.00659,     0.00     -0.0467639
"Line.AL110111"                            0.00275,     0.00     -0.0292848
"Line.AL111112"                            0.00148,     0.00     -0.0412528
"Line.AL111113"                            0.00095,     0.00     -0.0309129
"Line.AL113114"                            0.00034,      0.0     -0.0442818
"Line.AL104115"                            0.15212,     0.01     0.0317804
"Line.AL115116"                            0.01038,     0.00     -0.0521651
"Line.AL116117"                            0.00785,     0.00     -0.0398722
"Line.AL117118"                            0.00582,     0.00     -0.0295674
"Line.AL118119"                            0.00566,     0.00     -0.0187595
"Line.AL115120"                            0.00032,      0.0     -0.0283558
"Line.AL115121"                            0.03458,     0.00     -0.0027978
"Line.AL121122"                            0.04096,     0.00     -0.00331124
"Line.AL122123"                            0.02248,     0.00     -0.00342656
"Line.AL123124"                            0.03656,     0.00     -0.00557095
"Line.AL124125"                            0.04536,     0.01     -0.0353898
"Line.AL125126"                            0.00031,      0.0     -0.0307062
"Line.AL125127"                            0.02768,     0.00     -0.0267213
"Line.AL127128"                            0.01514,     0.00     -0.0141647
"Line.AL128129"                            0.00074,      0.0     -0.0491495
"Line.AL128130"                            0.00006,      0.0     -0.0352596
"Line.AL130131"                            0.00004,      0.0     -0.0271808
"Line.AL131132"                            0.00008,      0.0     -0.0467403
"Line.AL132133"                            0.00004,      0.0     -0.0197329
"Line.AL132134"                            0.00000,      0.0     -0.0261917
"Line.AL128135"                            0.04367,     0.01     -0.0176766
"Line.AL135136"                            0.03272,     0.01     -0.0136014
"Line.AL136137"                            0.08673,     0.01     -0.0360391
"Line.AL137138"                            0.00491,     0.00     -0.00531272
"Line.AL138139"                            0.01695,     0.00     -0.0316618
"Line.AL139140"                            0.01150,     0.00     -0.0215742
"Line.AL140141"                            0.00229,     0.00     -0.0245132
"Line.AL141142"                            0.00230,     0.00     -0.0248596
"Line.AL142142A"                           0.00009,      0.0     0.0207289
"Line.AL142143"                            0.00131,     0.00     -0.0324805
"Line.AL143143A"                           0.00011,      0.0     0.0258264
"Line.AL143143B"                           0.00050,      0.0     0.11147
"Line.AL140144"                            0.00551,     0.00     -0.0357318
"Line.AL144145"                            0.00022,      0.0     -0.0214273
"Line.AL144146"                            0.00533,     0.00     -0.0564088
"Line.AL146147"                            0.00116,     0.00     -0.0192358
"Line.AL147148"                            0.00021,      0.0     -0.0141168
"Line.AL147147A"                           0.00021,      0.0     0.0475079
"Line.AL137149"                            0.00223,     0.00     -0.00470647
"Line.AL149150"                            0.00627,     0.00     -0.0912574
"Line.AL150151"                            0.00050,      0.0     -0.0177833
"Line.AL151152"                            0.00025,      0.0     -0.0247131
"Line.AL149153"                            0.00554,     0.00     -0.0761906
"Line.AL153154"                            0.00061,      0.0     -0.00841664
"Line.AL154155"                            0.00200,     0.00     -0.0275402
"Line.AL155156"                            0.00043,      0.0     -0.0340047
"Line.AL155157"                            0.00223,     0.00     -0.0352242
"Line.AL157158"                            0.00035,      0.0     -0.0279922
"Line.AL158158A"                           0.00042,      0.0     0.139116
"Transformer.GINASIOI"                     0.63529,     1.47     0.631786
"Transformer.GINASIOII"                    0.63529,     1.47     0.631786
"Transformer.IFCH"                         0.71652,     1.41     0.65548
"Transformer.LABDNA"                       0.63526,     1.47     0.63195
"Transformer.ILC"                          0.59065,     1.37     0.483928
"Transformer.POSPSICOLOGIA"                0.64001,     1.48     0.952199
"Transformer.CAPACIT"                      0.71630,     1.41     0.655836
"Transformer.NCADR"                        0.63524,     1.47     0.632069
"Transformer.AMPLIFCH"                     0.50924,     1.57     0.258068
"Transformer.ICEN"                         1.08448,     1.56     2.21057
"Transformer.AMPLICEN"                     0.59064,     1.37     0.483943
"Transformer.CTIC"                         0.65860,     1.52     0.426766
"Transformer.BIOTERIO"                     2.73875,     1.24     3.27501
"Transformer.MUSEU"                        0.71629,     1.41     0.655854
"Transformer.FADESP"                       0.57334,     1.40     0.436345
"Transformer.ICB"                          2.73877,     1.24     3.2751
"Transformer.SALASICB"                     0.57327,     1.40     0.43647
"Transformer.EXTRACTA"                     0.79856,     1.54     0.503817
"Transformer.MICROSCOPIA"                  0.45133,     2.41     0.0974388
"Transformer.BIBLIOTECAGEO"                0.71754,     1.39     0.667293
"Transformer.LABQUIMICAPESQUISA"           0.77991,     1.46     0.429411
"Transformer.PAVPB"                        0.71753,     1.39     0.667318
"Transformer.GEOPESQUISA"                  0.64806,     1.57     0.385421
"Transformer.METEROLOGIA"                  0.72119,     1.35     0.841803
"Transformer.FISICAPESQUISA"               0.69225,     1.30     0.568313
"Transformer.LABDEFISICA"                  0.72119,     1.35     0.841829
"Transformer.SALASNPADC"                   0.71760,     1.39     0.667204
"Transformer.PROXNPADCI"                   0.57308,     1.39     0.436811
"Transformer.PROXNPADCII"                  0.57308,     1.39     0.436816
"Transformer.QUIMICAEPESQ"                 0.64902,     1.22     0.64471
"Transformer.NPADC"                        0.57286,     1.39     0.436842
"Transformer.QUIMICAENS"                   0.60962,     1.48     0.570336
"Line.AL200201"                            0.07440,     0.01     0.125216
"Line.AL201202"                            0.12783,     0.01     0.103316
"Line.AL202203"                            0.14376,     0.01     0.0502522
"Line.AL203204"                            0.15307,     0.01     0.0512745
"Line.AL204204A"                           0.00286,     0.00     0.0614062
"Line.AL204205"                            0.10044,     0.01     0.0232523
"Line.AL205206"                            0.08858,     0.01     0.0205134
"Line.AL206207"                            0.00003,      0.0     -0.0326
"Line.AL207208"                            0.00004,      0.0     -0.0370636
"Line.AL208209"                            0.00004,      0.0     -0.0371217
"Line.AL209210"                            0.00007,      0.0     -0.0650408
"Line.AL210211"                            0.00002,      0.0     -0.0120031
"Line.AL206212"                            0.04155,     0.00     0.0300229
"Line.AL212212A"                           0.01160,     0.00     0.0950509
"Line.AL212213"                            0.05978,     0.01     -0.0053232
"Line.AL213214"                            0.05606,     0.01     -0.00508505
"Line.AL214215"                            0.03476,     0.00     -0.00253863
"Line.AL215216"                            0.04349,     0.00     -0.00317272
"Line.AL216217"                            0.06496,     0.01     -0.00587318
"Line.AL217218"                            0.00026,      0.0     -0.0229099
"Line.AL217219"                            0.03474,     0.00     -0.00578668
"Line.AL219220"                            0.04129,     0.01     -0.0191209
"Line.AL220221"                            0.00267,     0.00     -0.0233133
"Line.AL221222"                            0.00151,     0.00     -0.0975294
"Line.AL221223"                            0.00081,      0.0     -0.0259942
"Line.AL223224"                            0.00021,      0.0     -0.0191447
"Line.AL220225"                            0.02889,     0.00     -0.00243402
"Line.AL225226"                            0.09128,     0.01     0.0014691
"Line.AL226227"                            0.03007,     0.00     -0.0111705
"Line.AL227228"                            0.01651,     0.00     -0.0156546
"Line.AL228229"                            0.00572,     0.00     -0.0170254
"Line.AL227230"                            0.00422,     0.00     -0.0354656
"Line.AL230231"                            0.00397,     0.00     -0.0337409
"Line.AL231232"                            0.00612,     0.00     -0.0345094
"Line.AL232233"                            0.00805,     0.00     -0.0676747
"Line.AL233234"                            0.00047,      0.0     -0.0421081
"Line.AL233235"                            0.00536,     0.00     -0.0572173
"Transformer.PERTODOAL2"                   0.47543,     1.61     0.655394
"Transformer.BENEDITONUNES"                2.01657,     1.31     2.63009
"Transformer.VADIAO"                       0.57152,     3.96     0.0540034
"Transformer.PROAD"                        1.05553,     1.52     1.66047
"Transformer.REITORIA"                     2.49372,     1.15     3.00295
"Transformer.CIAC"                         0.59047,     1.37     0.484275
"Transformer.ENSADIST"                     1.38025,     1.08     3.4698
"Transformer.LABNOVOQUIMICA"               0.69875,     1.28     0.593799
"Transformer.FISICAENS"                    0.59041,     1.37     0.484394
"Transformer.GEOCIENCIAS"                  0.65818,     1.52     0.427157
"Transformer.BLOCOS"                       0.65803,     1.52     0.427294
"Transformer.MIRANTEDORIO"                 3.26179,     1.43     11.3591
"Transformer.BIBLIOTECA"                   3.26191,     1.43     11.3598
"Transformer.RU1"                          0.59025,     1.37     0.484743
"Transformer.RU2"                          1.38053,     1.08     3.47312
"Line.AL300301"                            0.02599,     0.00     0.0708066
"Line.AL301302"                            0.04331,     0.00     -0.00901022
"Line.AL302303"                            0.07215,     0.01     -0.0150008
"Line.AL303304"                            0.02697,     0.00     -0.00620289
"Line.AL304305"                            0.04793,     0.01     -0.0124251
"Line.AL305306"                            0.02662,     0.00     -0.00689715
"Line.AL306307"                            0.00320,     0.00     -0.000828826
"Line.AL307308"                            0.03435,     0.00     -0.0120829
"Line.AL308309"                            0.01056,     0.00     -0.0608675
"Line.AL309310"                            0.00364,     0.00     -0.00775225
"Line.AL310311"                            0.01334,     0.00     -0.0311351
"Line.AL311312"                            0.00134,     0.00     -0.0326846
"Line.AL312313"                            0.00008,      0.0     -0.00543093
"Line.AL313314"                            0.00022,      0.0     -0.0150746
"Line.AL311315"                            0.00635,     0.00     -0.0323314
"Line.AL315316"                            0.00020,      0.0     -0.0535163
"Line.AL316316A"                           0.00001,      0.0     0.0269865
"Line.AL316317"                            0.00005,      0.0     -0.0371938
"Line.AL317318"                            0.00003,      0.0     -0.0234994
"Line.AL318319"                            0.00003,      0.0     -0.0344299
"Line.AL319320"                            0.00001,      0.0     -0.0108883
"Line.AL315321"                            0.00458,     0.00     -0.0318108
"Line.AL321322"                            0.00311,     0.00     -0.0758775
"Line.AL322323"                            0.00044,      0.0     -0.0144086
"Line.AL323323A"                           0.00029,      0.0     0.0525567
"Line.AL323324"                            0.00005,      0.0     -0.0404272
"Line.AL321325"                            0.00185,     0.00     -0.0628734
"Line.AL325326"                            0.00003,      0.0     -0.00242275
"Line.AL326327"                            0.00044,      0.0     -0.0339417
"Line.AL327328"                            0.00054,      0.0     -0.0417707
"Line.AL328329"                            0.00015,      0.0     -0.0118369
"Line.AL329330"                            0.00004,      0.0     -0.0364253
"Line.AL329331"                            0.00029,      0.0     -0.0902993
"Line.AL331332"                            0.00009,      0.0     -0.0189821
"Line.AL308333"                            0.01527,     0.00     -0.0352661
"Line.AL333334"                            0.00068,      0.0     -0.00157721
"Line.AL334335"                            0.01576,     0.00     -0.0475043
"Line.AL335336"                            0.01015,     0.00     -0.0300267
"Line.AL336337"                            0.00000,      0.0     -0.0202768
"Line.AL336338"                            0.02125,     0.00     -0.0628397
"Line.AL338338A"                           0.00002,      0.0     0.0475124
"Line.AL338339"                            0.00567,     0.00     -0.0180947
"Line.AL339340"                            0.00035,      0.0     -0.0337257
"Line.AL339341"                            0.00482,     0.00     -0.0197554
"Line.AL341342"                            0.00006,      0.0     -0.0172424
"Line.AL342342A"                           0.00005,      0.0     0.0327927
"Line.AL341343"                            0.00003,      0.0     -0.0340204
"Line.AL343344"                            0.00003,      0.0     -0.0277482
"Line.AL341345"                            0.01458,     0.00     -0.0752111
"Line.AL345346"                            0.01024,     0.00     -0.0574637
"Line.AL346346A"                           0.00084,      0.0     0.193036
"Line.AL346347"                            0.00098,     0.00     -0.00795755
"Line.AL347348"                            0.00034,      0.0     -0.0304224
"Line.AL348349"                            0.00016,      0.0     -0.0145184
"Line.AL349349A"                           0.00003,      0.0     0.00738689
"Line.AL347350"                            0.00361,     0.00     -0.0492008
"Line.AL350351"                            0.00397,     0.00     -0.0541299
"Line.AL351352"                            0.00021,      0.0     -0.0421925
"Line.AL352352A"                           0.00026,      0.0     0.181074
"Line.AL351353"                            0.00715,     0.00     -0.0423651
"Line.AL353353A"                           0.00044,      0.0     0.0998076
"Line.AL353354"                            0.00223,     0.00     -0.054481
"Line.AL354355"                            0.00026,      0.0     -0.0229845
"Line.AL355356"                            0.00037,      0.0     -0.0249239
"Line.AL356357"                            0.00015,      0.0     -0.0105364
"Line.AL354358"                            0.00027,      0.0     -0.0239515
"Line.AL358359"                            0.00033,      0.0     -0.0292933
"Line.AL359360"                            0.00030,      0.0     -0.0272684
"Line.AL360361"                            0.00025,      0.0     -0.0227752
"Transformer.AMPLAMBIENTAL"                0.29965,     2.12     0.116242
"Transformer.AMBIENTAL"                    0.79586,     1.57     0.48513
"Transformer.FAVI"                         0.29959,     2.11     0.116278
"Transformer.FAVII"                        0.29958,     2.11     0.116281
"Transformer.PGITECI"                      0.71316,     1.41     0.642054
"Transformer.PGITECII"                     0.71315,     1.41     0.642061
"Transformer.INCUBADORA"                   0.41101,     2.88     0.0783793
"Transformer.MESTRADOQUIMICA"              0.43870,     3.07     0.0604259
"Transformer.ARQUITETURA"                  0.60155,     2.03     0.182411
"Transformer.FACENGQUIMICAI"               0.60154,     2.03     0.182415
"Transformer.FACENGQUIMICAII"              0.60154,     2.03     0.182415
"Transformer.NOVAPROFISSIONAL"             0.43866,     3.07     0.0604316
"Transformer.LABCIVIL"                     0.71633,     2.41     0.138465
"Transformer.SALASDEAULAIPROFISSIONAL"     0.41097,     2.88     0.0783881
"Transformer.CHALEDEFERRO"                 0.43866,     3.07     0.0604321
"Transformer.TRATADEAGUA"                  0.60153,     2.03     0.182419
"Transformer.MECANICA"                     0.79578,     1.57     0.485197
"Transformer.PROXMGABINETES"               0.41094,     2.88     0.0783945
"Transformer.ENGELETRICA"                  0.69525,     4.77     0.041294
"Transformer.LABDEELETRICA"                0.74996,     1.78     0.298137
"Transformer.BLOCOEP"                      0.71633,     2.41     0.138465
"Transformer.PORTAO3"                      0.29953,     2.11     0.116307
"Transformer.RUPROFISSIONAL"               0.29952,     2.11     0.116315
"Transformer.ITEC"                         0.71305,     1.41     0.642224
"Transformer.ICED"                         0.71305,     1.41     0.642221
"Transformer.SALASDEAULASIIPROFISSIONAL"   0.71619,     2.41     0.138493
"Transformer.AMPLICED"                     0.71301,     1.41     0.642285
"Transformer.ICSA"                         0.79548,     1.57     0.48544
"Transformer.NAEA"                         0.71298,     1.41     0.642326
"Transformer.ICJ"                          0.79544,     1.57     0.48547
"Line.AL400401"                            0.04715,     0.00     0.0917716
"Line.AL401402"                            0.07916,     0.01     0.0170343
"Line.AL402403"                            0.13188,     0.01     0.0283918
"Line.AL403404"                            0.04930,     0.00     0.00991594
"Line.AL404405"                            0.09036,     0.01     0.0181804
"Line.AL405406"                            0.05017,     0.00     0.010099
"Line.AL406407"                            0.00603,     0.00     0.00121398
"Line.AL407408"                            0.07262,     0.01     0.0156561
"Line.AL408409"                            0.09006,     0.01     0.0181399
"Line.AL409410"                            0.00403,     0.00     0.000811476
"Line.AL410411"                            0.11474,     0.01     0.0231236
"Line.AL411412"                            0.07392,     0.01     0.0159578
"Line.AL412413"                            0.15472,     0.01     0.033418
"Line.AL413414"                            0.04391,     0.00     0.00948853
"Line.AL414415"                            0.04534,     0.00     0.00915395
"Line.AL415416"                            0.16981,     0.01     0.036722
"Line.AL416417"                            0.12848,     0.01     0.0278033
"Line.AL417418"                            0.01695,     0.00     0.00342706
"Line.AL418419"                            0.10139,     0.01     0.0205106
"Line.AL419420"                            0.11155,     0.01     0.0225788
"Line.AL420421"                            0.11649,     0.01     0.0235928
"Line.AL421422"                            0.28737,     0.02     0.111218
"Line.AL422423"                            0.35875,     0.03     0.050443
"Line.AL423424"                            0.00607,     0.00     0.00085459
"Line.AL424425"                            0.20525,     0.02     0.028736
"Line.AL425426"                            0.00040,      0.0     -0.0214406
"Line.AL426427"                            0.00026,      0.0     -0.0145721
"Line.AL427428"                            0.00037,      0.0     -0.0208291
"Line.AL428429"                            0.00063,      0.0     -0.0348235
"Line.AL429430"                            0.00039,      0.0     -0.0219259
"Line.AL430431"                            0.00041,      0.0     -0.0225591
"Line.AL431432"                            0.00045,      0.0     -0.0249619
"Line.AL432433"                            0.00046,      0.0     -0.025339
"Line.AL433434"                            0.00019,      0.0     -0.0214569
"Line.AL434435"                            0.00018,      0.0     -0.0203621
"Line.AL435436"                            0.00019,      0.0     -0.0212332
"Line.AL436437"                            0.00011,      0.0     -0.0350479
"Line.AL437438"                            0.00005,      0.0     -0.0162302
"Line.AL436439"                            0.00004,      0.0     -0.0273445
"Line.AL439440"                            0.00003,      0.0     -0.0217547
"Line.AL440441"                            0.00003,      0.0     -0.0173569
"Line.AL425442"                            0.13306,     0.01     0.0148361
"Line.AL442443"                            0.00004,      0.0     -0.0213552
"Line.AL443444"                            0.00006,      0.0     -0.0383499
"Line.AL444445"                            0.00003,      0.0     -0.0241204
"Line.AL442446"                            0.10800,     0.01     0.010258
"Line.AL446447"                            0.12788,     0.01     0.0121542
"Line.AL447448"                            0.15313,     0.01     0.0145661
"Line.AL448449"                            0.15330,     0.01     0.014595
"Line.AL449449A"                           0.00021,      0.0     0.166083
"Line.AL449450"                            0.14562,     0.01     0.0118396
"Line.AL450451"                            0.02640,     0.01     -0.0151258
"Line.AL451452"                            0.02040,     0.00     -0.0116827
"Line.AL452453"                            0.02135,     0.01     -0.0123767
"Line.AL453454"                            0.00233,     0.00     -0.0337318
"Line.AL453455"                            0.00638,     0.00     -0.0130485
"Line.AL455456"                            0.00920,     0.00     -0.0188163
"Line.AL456457"                            0.00027,      0.0     -0.0435469
"Line.AL456458"                            0.00191,     0.00     -0.027618
"Line.AL458459"                            0.00172,     0.00     -0.0249232
"Line.AL4594660"                           0.00093,     0.00     -0.0134788
"Line.AL460461"                            0.00164,     0.00     -0.0237732
"Line.AL461462"                            0.00096,     0.00     -0.013933
"Line.AL450463"                            0.04122,     0.01     -0.0157389
"Line.AL463464"                            0.04310,     0.01     -0.0164494
"Line.AL464465"                            0.01597,     0.01     -0.0506826
"Line.AL464466"                            0.03957,     0.01     -0.0221631
"Line.AL466467"                            0.01078,     0.00     -0.00603775
"Line.AL467468"                            0.00940,     0.00     -0.00525919
"Line.AL468469"                            0.00332,     0.00     -0.0369007
"Line.AL468470"                            0.01465,     0.01     -0.0290979
"Line.AL470471"                            0.00207,     0.00     -0.0230277
"Line.AL470472"                            0.00294,     0.00     -0.0226931
"Line.AL472473"                            0.00576,     0.00     -0.0444355
"Line.AL473474"                            0.00413,     0.00     -0.0318897
"Line.AL474475"                            0.00729,     0.00     -0.0562664
"Line.AL475476"                            0.00005,      0.0     -0.0240671
"Line.AL476477"                            0.00004,      0.0     -0.0173885
"Line.AL475478"                            0.00472,     0.00     -0.0384087
"Line.AL478479"                            0.00420,     0.00     -0.0509676
"Line.AL479480"                            0.00472,     0.00     -0.038403
"Line.AL480481"                            0.00277,     0.00     -0.0302395
"Line.AL481482"                            0.00253,     0.00     -0.041003
"Line.AL482483"                            0.00237,     0.00     -0.0379971
"Line.AL483484"                            0.00316,     0.00     -0.0345543
"Line.AL484485"                            0.00277,     0.00     -0.0448407
"Line.AL485486"                            0.00311,     0.00     -0.0512592
"Line.AL486487"                            0.00195,     0.00     -0.0216063
"Line.AL487488"                            0.00171,     0.00     -0.0281904
"Line.AL488489"                            0.00101,     0.00     -0.0112346
"Transformer.POEMA"                        0.32800,     1.76     0.189014
"Transformer.NOVA"                         0.30936,     1.66     0.308069
"Transformer.NAVAL"                        0.59443,     2.14     0.160501
"Transformer.CONSTRNAVAL"                  0.32791,     1.76     0.189107
"Transformer.FARMACIA"                     0.69781,     3.67     0.0662751
"Transformer.ODONTO"                       0.70954,     2.55     0.122045
"Transformer.SALASDEAULASAUDE"             1.78199,     1.43     3.77487
"Transformer.GEDAE"                        2.41247,     1.93     4.98263
"Transformer.NUTRIEFISIO"                  0.63464,     1.70     0.341285
"Transformer.DERMATOLOGIA"                 1.78220,     1.43     3.77569
"Transformer.BETINA1"                      0.59355,     2.14     0.160762
"Transformer.BETINA2"                      0.70913,     2.55     0.122117
"Transformer.BETINA3"                      2.74396,     1.25     3.29366
"Transformer.MEDICINA"                     1.78220,     1.43     3.77571
"Transformer.GENOMICA"                     1.78230,     1.43     3.77608
"Transformer.CEAMAZON"                     0.45753,     2.08     0.119918
"Transformer.LEITE"                        0.32747,     1.76     0.189566
"Transformer.PCT"                          1.78309,     1.43     3.77912
"Transformer.TRAFOELETROPOSTO1"            0.38519,   100.00     2.78159
"Transformer.TRAFOELETROPOSTO2"            0.38504,   100.00     2.78048
"Transformer.TRAFOELETROPOSTO3"            0.38547,   100.00     2.78357
"Transformer.TRAFOELETROPOSTO4"            0.38613,   100.00     2.78837
"Transformer.TRAFOELETROPOSTO5"            0.38743,   100.00     2.79774
"Transformer.TRAFOELETROPOSTO6"            0.38739,   100.00     2.79747
"Transformer.TRAFOELETROPOSTO7"            0.38752,   100.00     2.79838
"Transformer.TRAFOELETROPOSTO8"            0.38760,   100.00     2.79894
"Transformer.TRAFOELETROPOSTO9"            0.38753,   100.00     2.7985
"Transformer.TRAFOELETROPOSTO10"           0.38750,   100.00     2.79821
"Transformer.TRAFOELETROPOSTO11"           0.38773,   100.00     2.79987
"Transformer.TRAFOELETROPOSTO12"           0.38736,   100.00     2.79726
"Transformer.TRAFOELETROPOSTO13"           0.38694,   100.00     2.79417
"Transformer.TRAFOELETROPOSTO14"           0.38718,   100.00     2.79592
"Transformer.TRAFOELETROPOSTO15"           0.38691,   100.00     2.79401
"Transformer.TRAFOELETROPOSTO16"           0.38736,   100.00     2.79725
"Transformer.TRAFOELETROPOSTO17"           0.38744,   100.00     2.79778
"Transformer.TRAFOELETROPOSTO18"           0.38693,   100.00     2.79413
"Transformer.TRAFOELETROPOSTO19"           0.38683,   100.00     2.79342

LINE LOSSES=                         7.0 kW
TRANSFORMER LOSSES=                 89.6 kW

TOTAL LOSSES=                       96.6 kW

TOTAL LOAD POWER =                5364.0 kW
Percent Losses for Circuit =      1.80 %
