rede ufpa/UFPA_VLL.Txt

SYMMETRICAL COMPONENT PHASE-PHASE VOLTAGES BY BUS (for 3-phase buses)

Bus              Mag:   V1 (kV)    p.u.     V2 (kV)   %V2/V1    V0 (kV)    %V0/V1

barrazero            13.8     0.9999  0.0006039   0.004377 2.274E-015 1.648E-014
cabinedemedicao      13.8     0.9999  0.0006084   0.004409 1.929E-015 1.398E-014
101                  13.8     0.9999  0.0006159   0.004464 2.274E-015 1.648E-014
102                  13.8     0.9998  0.0006362   0.004611 1.64E-015 1.188E-014
103                  13.8     0.9998  0.0006307   0.004571 2.034E-015 1.474E-014
103a                 13.8     0.9998  0.0006232   0.004516 2.034E-015 1.474E-014
104                  13.8     0.9998  0.0006228   0.004514 2.034E-015 1.474E-014
105                  13.8     0.9998  0.0006197   0.004491 1.929E-015 1.398E-014
106                  13.8     0.9998  0.0006192   0.004488 2.274E-015 1.648E-014
107                  13.8     0.9998  0.0006183   0.004481 2.034E-015 1.474E-014
108                  13.8     0.9998  0.0006168    0.00447 1.929E-015 1.398E-014
109                  13.8     0.9998   0.000615   0.004457 2.034E-015 1.474E-014
109a                 13.8     0.9998  0.0006171   0.004473 1.64E-015 1.188E-014
110                  13.8     0.9998  0.0006147   0.004455 1.438E-015 1.042E-014
111                  13.8     0.9998  0.0006114   0.004431 1.64E-015 1.188E-014
112                  13.8     0.9998  0.0006096   0.004418 1.929E-015 1.398E-014
113                  13.8     0.9998  0.0006097   0.004419 1.64E-015 1.188E-014
114                  13.8     0.9998  0.0006085    0.00441 1.64E-015 1.188E-014
115                  13.8     0.9998  0.0006203   0.004496 2.274E-015 1.648E-014
116                  13.8     0.9998  0.0006158   0.004463 1.929E-015 1.398E-014
117                  13.8     0.9998  0.0006124   0.004439 1.875E-015 1.359E-014
118                  13.8     0.9998  0.0006099    0.00442 1.929E-015 1.398E-014
119                  13.8     0.9998  0.0006091   0.004415 2.034E-015 1.474E-014
120                  13.8     0.9998  0.0006229   0.004515 1.286E-015 9.322E-015
121                  13.8     0.9998  0.0006204   0.004497 1.929E-015 1.398E-014
122                  13.8     0.9998  0.0006205   0.004498 1.929E-015 1.398E-014
123                  13.8     0.9998  0.0006208   0.004499 2.274E-015 1.648E-014
124                  13.8     0.9998  0.0006211   0.004502 2.274E-015 1.648E-014
125                  13.8     0.9998   0.000623   0.004515 1.929E-015 1.398E-014
126                  13.8     0.9998  0.0006231   0.004516 2.652E-015 1.922E-014
127                  13.8     0.9998  0.0006246   0.004527 2.034E-015 1.474E-014
128                  13.8     0.9997  0.0006259   0.004537 2.034E-015 1.474E-014
129                  13.8     0.9997  0.0006301   0.004567 1.929E-015 1.398E-014
130                  13.8     0.9997  0.0006269   0.004544 1.929E-015 1.398E-014
131                  13.8     0.9997  0.0006277   0.004549 2.572E-015 1.865E-014
132                  13.8     0.9997  0.0006289   0.004559 1.286E-015 9.323E-015
133                  13.8     0.9997  0.0006301   0.004567 2.034E-015 1.474E-014
134                  13.8     0.9997  0.0006289   0.004559 1.438E-015 1.042E-014
135                  13.8     0.9997  0.0006256   0.004535 2.572E-015 1.865E-014
136                  13.8     0.9997  0.0006251   0.004531 1.929E-015 1.398E-014
137                  13.8     0.9997  0.0006241   0.004524 2.449E-015 1.775E-014
138                  13.8     0.9997  0.0006257   0.004536 2.034E-015 1.474E-014
139                  13.8     0.9997  0.0006255   0.004534 1.875E-015 1.359E-014
140                  13.8     0.9997  0.0006255   0.004534 2.274E-015 1.648E-014
141                  13.8     0.9997  0.0006272   0.004547 2.652E-015 1.922E-014
142                  13.8     0.9997   0.000629   0.004559 1.286E-015 9.323E-015
142a                 13.8     0.9997  0.0006295   0.004563 2.274E-015 1.648E-014
143                  13.8     0.9997  0.0006297   0.004565 2.274E-015 1.648E-014
143a                 13.8     0.9997  0.0006298   0.004566 1.64E-015 1.189E-014
143b                 13.8     0.9997  0.0006328   0.004587 1.286E-015 9.323E-015
144                  13.8     0.9997  0.0006228   0.004515 1.64E-015 1.188E-014
145                  13.8     0.9997  0.0006228   0.004514 2.572E-015 1.865E-014
146                  13.8     0.9997  0.0006192   0.004488 1.438E-015 1.042E-014
147                  13.8     0.9997  0.0006196   0.004492 2.274E-015 1.648E-014
148                  13.8     0.9997  0.0006198   0.004493 1.929E-015 1.399E-014
147a                 13.8     0.9997  0.0006199   0.004493 2.274E-015 1.648E-014
149                  13.8     0.9997  0.0006247   0.004528 1.929E-015 1.398E-014
150                  13.8     0.9997  0.0006281   0.004553 2.274E-015 1.648E-014
151                  13.8     0.9997   0.000628   0.004552 1.929E-015 1.398E-014
152                  13.8     0.9997   0.000628   0.004552 2.034E-015 1.474E-014
153                  13.8     0.9997  0.0006226   0.004513 2.034E-015 1.474E-014
154                  13.8     0.9997  0.0006224   0.004511 1.929E-015 1.398E-014
155                  13.8     0.9997  0.0006216   0.004506 2.274E-015 1.648E-014
156                  13.8     0.9997  0.0006217   0.004507 2.652E-015 1.922E-014
157                  13.8     0.9997  0.0006218   0.004507 2.274E-015 1.648E-014
158                  13.8     0.9997  0.0006217   0.004506 2.034E-015 1.474E-014
158a                 13.8     0.9997  0.0006217   0.004507 1.929E-015 1.398E-014
103ab              0.2198     0.9993  3.21E-005     0.0146 2.132E-017 9.696E-015
103abc             0.2198     0.9993  3.21E-005     0.0146 2.132E-017 9.696E-015
103b               0.2199     0.9995  0.0001019    0.04633 3.553E-017 1.616E-014
106b               0.2198     0.9993  3.246E-005    0.01476 3.178E-017 1.445E-014
107b               0.2199     0.9994  2.466E-005    0.01122 2.562E-017 1.165E-014
109b               0.2198      0.999  5.007E-005    0.02278 2.93E-017 1.333E-014
109ab              0.2199     0.9995  0.0001019    0.04635 2.132E-017 9.694E-015
109abc             0.2198     0.9993  3.284E-005    0.01494 2.247E-017 1.022E-014
110b               0.2195     0.9979  4.614E-005    0.02102 2.132E-017 9.71E-015
112b               0.2197     0.9988  0.0001212    0.05516 2.842E-017 1.293E-014
113b               0.2199     0.9994  2.472E-005    0.01124 1.589E-017 7.226E-015
114b               0.2199     0.9995  2.211E-005    0.01006 2.132E-017 9.694E-015
119b               0.2195     0.9979  2.33E-005    0.01061 2.842E-017 1.295E-014
120b               0.2199     0.9995  0.0001019    0.04636 2.247E-017 1.022E-014
122b               0.2198     0.9992  3.398E-005    0.01546 3.623E-017 1.648E-014
124b               0.2195     0.9979  2.344E-005    0.01068 1.421E-017 6.473E-015
126b               0.2198     0.9991  3.38E-005    0.01538 2.842E-017 1.293E-014
129b               0.2199     0.9996  6.581E-005    0.02992 3.178E-017 1.445E-014
133b               0.2198     0.9992  5.326E-005    0.02423 2.247E-017 1.022E-014
142ab              0.2199     0.9995  8.427E-005    0.03832 2.247E-017 1.022E-014
143ab              0.2198      0.999  3.819E-005    0.01738 2.93E-017 1.333E-014
143bc              0.2199     0.9995  8.432E-005    0.03834 2.247E-017 1.022E-014
145b               0.2198     0.9992  2.634E-005    0.01198 2.247E-017 1.022E-014
146ab              0.2195     0.9977  6.971E-005    0.03176 2.132E-017 9.712E-015
147ab              0.2197     0.9987  4.811E-005    0.02189 2.842E-017 1.294E-014
148b               0.2195     0.9977  6.975E-005    0.03178 2.247E-017 1.024E-014
150b               0.2199     0.9996  8.427E-005    0.03832 3.826E-017 1.74E-014
151b               0.2198     0.9991  3.333E-005    0.01516 2.132E-017 9.698E-015
152b               0.2198     0.9991  3.335E-005    0.01517 2.842E-017 1.293E-014
154b               0.2196     0.9983  5.405E-005    0.02461 2.247E-017 1.023E-014
156b               0.2198     0.9991  2.929E-005    0.01333 2.562E-017 1.166E-014
158ab              0.2197     0.9989  4.691E-005    0.02135 2.132E-017  9.7E-015
201                  13.8     0.9999  0.0006233   0.004518 2.034E-015 1.474E-014
202                  13.8     0.9998  0.0006479   0.004696 1.64E-015 1.188E-014
203                  13.8     0.9998  0.0006514   0.004721 1.64E-015 1.188E-014
204                  13.8     0.9998  0.0006548   0.004746 1.64E-015 1.188E-014
204a                 13.8     0.9998  0.0006549   0.004747 1.64E-015 1.188E-014
205                  13.8     0.9998  0.0006584   0.004772 2.034E-015 1.474E-014
206                  13.8     0.9998  0.0006616   0.004796 2.274E-015 1.648E-014
207                  13.8     0.9998  0.0006623     0.0048 1.64E-015 1.188E-014
208                  13.8     0.9998   0.000663   0.004806 1.929E-015 1.398E-014
209                  13.8     0.9998  0.0006637   0.004811 1.929E-015 1.398E-014
210                  13.8     0.9998   0.000665    0.00482 2.034E-015 1.474E-014
211                  13.8     0.9998  0.0006655   0.004823 2.274E-015 1.648E-014
212                  13.8     0.9998  0.0006717   0.004868 2.274E-015 1.648E-014
212a                 13.8     0.9998  0.0006666   0.004832 2.572E-015 1.865E-014
213                  13.8     0.9998  0.0006792   0.004923 1.929E-015 1.398E-014
214                  13.8     0.9998  0.0006863   0.004974 1.64E-015 1.188E-014
215                  13.8     0.9997  0.0006914   0.005011 1.929E-015 1.398E-014
216                  13.8     0.9997  0.0006977   0.005057 2.449E-015 1.775E-014
217                  13.8     0.9997  0.0007059   0.005117 1.64E-015 1.188E-014
218                  13.8     0.9997  0.0007052   0.005111 2.652E-015 1.922E-014
219                  13.8     0.9997  0.0007111   0.005154 2.274E-015 1.648E-014
220                  13.8     0.9997  0.0007152   0.005184 2.034E-015 1.474E-014
221                  13.8     0.9997   0.000713   0.005168 2.274E-015 1.648E-014
222                  13.8     0.9997  0.0007107   0.005152 2.274E-015 1.648E-014
223                  13.8     0.9997  0.0007116   0.005158 1.286E-015 9.323E-015
224                  13.8     0.9997   0.000711   0.005154 1.929E-015 1.398E-014
225                  13.8     0.9997  0.0007348   0.005326 1.64E-015 1.188E-014
226                  13.8     0.9997  0.0007664   0.005555 2.449E-015 1.775E-014
227                  13.8     0.9997   0.000773   0.005603 1.929E-015 1.399E-014
228                  13.8     0.9997  0.0007745   0.005614 2.034E-015 1.474E-014
229                  13.8     0.9997  0.0007788   0.005645 1.64E-015 1.189E-014
230                  13.8     0.9997   0.000783   0.005676 1.929E-015 1.399E-014
231                  13.8     0.9997  0.0007923   0.005744 2.912E-015 2.111E-014
232                  13.8     0.9997  0.0008105   0.005875 2.319E-015 1.681E-014
233                  13.8     0.9996    0.00083   0.006017 2.274E-015 1.648E-014
234                  13.8     0.9996  0.0008287   0.006007 1.929E-015 1.399E-014
235                 13.79     0.9996  0.0008616   0.006246 1.64E-015 1.189E-014
203b               0.2194     0.9973  0.0003624     0.1652 3.553E-017 1.619E-014
204b               0.2198      0.999  1.482E-005   0.006745 3.553E-017 1.617E-014
211b               0.2199     0.9994  2.379E-005    0.01082 2.247E-017 1.022E-014
212b               0.2198      0.999  9.199E-005    0.04186 2.842E-017 1.293E-014
212c               0.2198     0.9989  5.995E-005    0.02728 2.842E-017 1.293E-014
218b               0.2199     0.9993  2.314E-005    0.01053 2.842E-017 1.293E-014
219b               0.2192     0.9962  0.0003119     0.1423 2.93E-017 1.337E-014
222b               0.2197     0.9986  6.482E-005    0.02951 3.623E-017 1.649E-014
223b               0.2199     0.9993  2.323E-005    0.01057 2.842E-017 1.293E-014
224b               0.2199     0.9994  2.093E-005   0.009521 2.247E-017 1.022E-014
226b               0.2199     0.9994  2.132E-005   0.009697 2.842E-017 1.293E-014
228b               0.2187     0.9942   0.000222     0.1015 2.842E-017 1.299E-014
229b               0.2187     0.9941  0.0002221     0.1016 2.93E-017 1.339E-014
234b               0.2198     0.9993  2.295E-005    0.01044 2.132E-017 9.696E-015
235b               0.2191     0.9961  0.0003124     0.1425 3.623E-017 1.653E-014
301                  13.8     0.9999  0.0006265   0.004541 1.64E-015 1.188E-014
302                  13.8     0.9999  0.0006394   0.004634 1.64E-015 1.188E-014
303                  13.8     0.9998  0.0006628   0.004803 2.274E-015 1.648E-014
304                  13.8     0.9998  0.0006715   0.004867 2.274E-015 1.648E-014
305                  13.8     0.9998  0.0006879   0.004986 1.64E-015 1.188E-014
306                  13.8     0.9998  0.0006974   0.005055 1.64E-015 1.188E-014
307                  13.8     0.9998  0.0006986   0.005063 1.286E-015 9.322E-015
308                  13.8     0.9998  0.0007129   0.005167 1.875E-015 1.359E-014
309                  13.8     0.9998   0.000725   0.005255 2.034E-015 1.474E-014
310                  13.8     0.9998  0.0007271    0.00527 1.929E-015 1.398E-014
311                  13.8     0.9998  0.0007355   0.005331 1.929E-015 1.398E-014
312                  13.8     0.9998  0.0007378   0.005347 1.875E-015 1.359E-014
313                  13.8     0.9998  0.0007382    0.00535 1.286E-015 9.322E-015
314                  13.8     0.9998  0.0007394   0.005359 2.274E-015 1.648E-014
315                  13.8     0.9998  0.0007421   0.005379 1.438E-015 1.042E-014
316                  13.8     0.9998   0.000744   0.005392 2.034E-015 1.474E-014
316a                 13.8     0.9998  0.0007442   0.005394 2.449E-015 1.775E-014
317                  13.8     0.9998  0.0007451   0.005401 2.572E-015 1.864E-014
318                  13.8     0.9998  0.0007459   0.005406 1.64E-015 1.188E-014
319                  13.8     0.9998  0.0007465    0.00541 1.64E-015 1.188E-014
320                  13.8     0.9998  0.0007468   0.005413 1.64E-015 1.188E-014
321                  13.8     0.9998  0.0007476   0.005419 2.652E-015 1.922E-014
322                  13.8     0.9998  0.0007548   0.005471 2.034E-015 1.474E-014
323                  13.8     0.9998  0.0007573   0.005489 2.274E-015 1.648E-014
323a                 13.8     0.9998  0.0007596   0.005505 2.034E-015 1.474E-014
324                  13.8     0.9998  0.0007586   0.005498 1.929E-015 1.398E-014
325                  13.8     0.9998   0.000753   0.005457 1.286E-015 9.322E-015
326                  13.8     0.9998  0.0007531   0.005458 1.64E-015 1.188E-014
327                  13.8     0.9998  0.0007551   0.005473 1.64E-015 1.188E-014
328                  13.8     0.9998  0.0007575    0.00549 2.034E-015 1.474E-014
329                  13.8     0.9998  0.0007582   0.005495 2.652E-015 1.922E-014
330                  13.8     0.9998  0.0007593   0.005503 2.274E-015 1.648E-014
331                  13.8     0.9998  0.0007606   0.005513 2.274E-015 1.648E-014
332                  13.8     0.9998   0.000762   0.005523 2.652E-015 1.922E-014
333                  13.8     0.9998  0.0007224   0.005236 2.274E-015 1.648E-014
334                  13.8     0.9998  0.0007229   0.005239 2.912E-015 2.11E-014
335                  13.8     0.9998   0.000734    0.00532 1.929E-015 1.398E-014
336                  13.8     0.9998  0.0007418   0.005376 1.929E-015 1.398E-014
337                  13.8     0.9998  0.0007418   0.005376 1.929E-015 1.398E-014
338                  13.8     0.9998  0.0007583   0.005496 1.929E-015 1.398E-014
338a                 13.8     0.9998  0.0007587   0.005499 2.274E-015 1.648E-014
339                  13.8     0.9998  0.0007629    0.00553 1.929E-015 1.398E-014
340                  13.8     0.9998  0.0007662   0.005553 2.034E-015 1.474E-014
341                  13.8     0.9998  0.0007676   0.005564 2.034E-015 1.474E-014
342                  13.8     0.9998  0.0007693   0.005576 1.64E-015 1.188E-014
342a                 13.8     0.9998  0.0007699    0.00558 1.929E-015 1.398E-014
343                  13.8     0.9998  0.0007685    0.00557 1.286E-015 9.322E-015
344                  13.8     0.9998  0.0007692   0.005575 1.64E-015 1.188E-014
345                  13.8     0.9998  0.0007839   0.005682 2.274E-015 1.648E-014
346                  13.8     0.9998  0.0007962   0.005771 1.64E-015 1.188E-014
346a                 13.8     0.9998  0.0008014   0.005809 1.286E-015 9.322E-015
347                  13.8     0.9998  0.0007976   0.005781 1.286E-015 9.322E-015
348                  13.8     0.9998   0.000801   0.005805 1.64E-015 1.188E-014
349                  13.8     0.9998  0.0008026   0.005817 1.929E-015 1.398E-014
349a                 13.8     0.9998  0.0008028   0.005819 2.274E-015 1.648E-014
350                  13.8     0.9998  0.0008042   0.005829 2.274E-015 1.648E-014
351                  13.8     0.9998  0.0008116   0.005883 1.929E-015 1.398E-014
352                  13.8     0.9998  0.0008147   0.005905 1.64E-015 1.188E-014
352a                 13.8     0.9998  0.0008188   0.005935 2.034E-015 1.474E-014
353                  13.8     0.9998   0.000819   0.005936 1.017E-015 7.37E-015
353a                 13.8     0.9998  0.0008219   0.005957 2.034E-015 1.474E-014
354                  13.8     0.9998  0.0008238   0.005971 1.929E-015 1.398E-014
355                  13.8     0.9998  0.0008265    0.00599 1.929E-015 1.398E-014
356                  13.8     0.9998  0.0008289   0.006008 2.449E-015 1.775E-014
357                  13.8     0.9998  0.0008299   0.006015 1.64E-015 1.188E-014
358                  13.8     0.9998  0.0008266   0.005991 2.652E-015 1.922E-014
359                  13.8     0.9998    0.00083   0.006016 1.929E-015 1.398E-014
360                  13.8     0.9998  0.0008331   0.006038 2.572E-015 1.865E-014
361                  13.8     0.9998  0.0008357   0.006057 2.034E-015 1.474E-014
304b               0.2198      0.999   4.7E-005    0.02139 2.247E-017 1.022E-014
307b               0.2199     0.9996  8.028E-005    0.03651 2.247E-017 1.022E-014
309b               0.2198     0.9989  4.639E-005    0.02111 2.247E-017 1.022E-014
310b               0.2198     0.9989  4.633E-005    0.02108 2.93E-017 1.333E-014
312b               0.2199     0.9995  0.0001041    0.04734 2.247E-017 1.022E-014
314b               0.2199     0.9995  0.0001041    0.04736 2.132E-017 9.694E-015
316b               0.2198     0.9992  3.24E-005    0.01474 3.623E-017 1.648E-014
320b               0.2199     0.9994  2.575E-005    0.01171 3.623E-017 1.648E-014
322b               0.2198     0.9992  0.0001031    0.04688 2.247E-017 1.022E-014
323b               0.2198     0.9992  0.0001032    0.04693 2.247E-017 1.022E-014
323c               0.2198     0.9992  0.0001032    0.04693 2.247E-017 1.022E-014
324b               0.2199     0.9993  2.526E-005    0.01149 2.247E-017 1.022E-014
325b               0.2199     0.9994  8.029E-005    0.03652 2.132E-017 9.695E-015
329b               0.2198     0.9992  3.201E-005    0.01456 2.93E-017 1.333E-014
330b               0.2199     0.9993  2.537E-005    0.01154 2.842E-017 1.293E-014
332b               0.2198     0.9992  0.0001032    0.04694 2.247E-017 1.022E-014
334b               0.2199     0.9996  8.076E-005    0.03673 2.842E-017 1.292E-014
347b               0.2198     0.9992  3.229E-005    0.01469 2.93E-017 1.333E-014
338b               0.2199     0.9995  1.827E-005    0.00831 2.93E-017 1.332E-014
340b               0.2195     0.9977  3.957E-005    0.01803 2.247E-017 1.024E-014
342b               0.2199     0.9994  8.048E-005     0.0366 2.562E-017 1.165E-014
344b               0.2198     0.9989  4.602E-005    0.02094 2.247E-017 1.022E-014
345b               0.2198     0.9989  4.581E-005    0.02085 2.132E-017  9.7E-015
346b               0.2199     0.9994  0.0001052    0.04785 3.178E-017 1.445E-014
349b               0.2199     0.9994  0.0001052    0.04786 3.623E-017 1.648E-014
352b               0.2199     0.9994  8.144E-005    0.03704 2.132E-017 9.695E-015
353b               0.2199     0.9994  0.0001055      0.048 2.93E-017 1.332E-014
353c               0.2199     0.9995  8.255E-005    0.03754 3.553E-017 1.616E-014
357b               0.2199     0.9994  0.0001057    0.04808 2.132E-017 9.695E-015
361b               0.2199     0.9995  8.278E-005    0.03765 2.93E-017 1.332E-014
401                  13.8     0.9999  0.0006441   0.004668 2.449E-015 1.775E-014
402                  13.8     0.9998  0.0006783   0.004916 1.286E-015 9.322E-015
403                  13.8     0.9998  0.0007354    0.00533 1.286E-015 9.322E-015
404                  13.8     0.9998  0.0007559   0.005478 1.64E-015 1.188E-014
405                  13.8     0.9998  0.0007935   0.005751 1.64E-015 1.188E-014
406                  13.8     0.9998  0.0008143   0.005902 2.274E-015 1.648E-014
407                  13.8     0.9998  0.0008168    0.00592 2.274E-015 1.648E-014
408                  13.8     0.9998  0.0008484   0.006149 1.64E-015 1.188E-014
409                  13.8     0.9998   0.000886   0.006422 2.274E-015 1.648E-014
410                  13.8     0.9998  0.0008877   0.006434 2.274E-015 1.648E-014
411                  13.8     0.9997  0.0009356   0.006781 1.929E-015 1.398E-014
412                  13.8     0.9997  0.0009678   0.007015 2.034E-015 1.474E-014
413                  13.8     0.9997   0.001035   0.007505 1.64E-015 1.188E-014
414                  13.8     0.9997   0.001055   0.007644 1.929E-015 1.398E-014
415                  13.8     0.9997   0.001074   0.007782 1.929E-015 1.399E-014
416                  13.8     0.9997   0.001148   0.008321 2.274E-015 1.648E-014
417                 13.79     0.9996   0.001204   0.008729 1.64E-015 1.189E-014
418                 13.79     0.9996   0.001211    0.00878 1.64E-015 1.189E-014
419                 13.79     0.9996   0.001254   0.009089 1.64E-015 1.189E-014
420                 13.79     0.9996   0.001301   0.009428 2.274E-015 1.648E-014
421                 13.79     0.9996   0.001349   0.009783 1.64E-015 1.189E-014
422                 13.79     0.9995     0.0015    0.01088 1.929E-015 1.399E-014
423                 13.79     0.9995   0.001631    0.01183 2.034E-015 1.474E-014
424                 13.79     0.9995   0.001633    0.01184 2.274E-015 1.648E-014
425                 13.79     0.9995   0.001712    0.01241 2.034E-015 1.474E-014
426                 13.79     0.9994   0.001716    0.01244 2.034E-015 1.475E-014
427                 13.79     0.9994   0.001719    0.01246 2.034E-015 1.475E-014
428                 13.79     0.9994   0.001723    0.01249 1.64E-015 1.189E-014
429                 13.79     0.9994    0.00173    0.01254 1.929E-015 1.399E-014
430                 13.79     0.9994   0.001734    0.01257 1.929E-015 1.399E-014
431                 13.79     0.9994   0.001738     0.0126 2.274E-015 1.649E-014
432                 13.79     0.9994   0.001743    0.01264 1.64E-015 1.189E-014
433                 13.79     0.9994   0.001748    0.01268 1.64E-015 1.189E-014
434                 13.79     0.9994   0.001751     0.0127 2.274E-015 1.649E-014
435                 13.79     0.9994   0.001754    0.01272 2.274E-015 1.649E-014
436                 13.79     0.9994   0.001757    0.01274 2.034E-015 1.475E-014
437                 13.79     0.9994   0.001759    0.01275 1.64E-015 1.189E-014
438                 13.79     0.9994    0.00176    0.01276 1.929E-015 1.399E-014
439                 13.79     0.9994   0.001758    0.01275 1.64E-015 1.189E-014
440                 13.79     0.9994    0.00176    0.01276 1.929E-015 1.399E-014
441                 13.79     0.9994   0.001761    0.01277 1.64E-015 1.189E-014
442                 13.79     0.9994   0.001768    0.01282 1.286E-015 9.326E-015
443                 13.79     0.9994   0.001769    0.01283 1.929E-015 1.399E-014
444                 13.79     0.9994    0.00177    0.01283 1.64E-015 1.189E-014
445                 13.79     0.9994   0.001771    0.01284 1.929E-015 1.399E-014
446                 13.79     0.9994   0.001813    0.01314 2.274E-015 1.649E-014
447                 13.79     0.9994   0.001866    0.01353 1.929E-015 1.399E-014
448                 13.79     0.9994    0.00193    0.01399 2.034E-015 1.475E-014
449                 13.79     0.9993   0.001994    0.01446 1.929E-015 1.399E-014
449a                13.79     0.9993   0.001995    0.01447 1.64E-015 1.189E-014
450                 13.79     0.9993   0.002058    0.01492 2.449E-015 1.776E-014
451                 13.79     0.9993   0.002121    0.01538 2.274E-015 1.649E-014
452                 13.79     0.9993    0.00217    0.01573 1.929E-015 1.399E-014
453                 13.79     0.9993   0.002221    0.01611 2.274E-015 1.649E-014
454                 13.79     0.9993    0.00224    0.01625 1.438E-015 1.043E-014
455                 13.79     0.9993   0.002243    0.01627 1.64E-015 1.189E-014
456                 13.79     0.9993   0.002275     0.0165 2.274E-015 1.649E-014
457                 13.79     0.9993    0.00228    0.01654 1.64E-015 1.189E-014
458                 13.79     0.9993    0.00229    0.01661 1.929E-015 1.399E-014
459                 13.79     0.9993   0.002305    0.01671 2.034E-015 1.475E-014
460                 13.79     0.9993   0.002312    0.01677 1.286E-015 9.327E-015
461                 13.79     0.9993   0.002326    0.01687 1.64E-015 1.189E-014
462                 13.79     0.9993   0.002334    0.01692 2.034E-015 1.475E-014
463                 13.79     0.9993    0.00208    0.01508 1.64E-015 1.189E-014
464                 13.79     0.9993   0.002103    0.01525 1.64E-015 1.189E-014
465                 13.79     0.9993   0.002098    0.01521 1.64E-015 1.189E-014
466                 13.79     0.9993   0.002194    0.01591 2.572E-015 1.865E-014
467                 13.79     0.9993   0.002219    0.01609 2.034E-015 1.475E-014
468                 13.79     0.9993   0.002241    0.01625 1.929E-015 1.399E-014
469                 13.79     0.9993   0.002263    0.01641 1.286E-015 9.327E-015
470                 13.79     0.9993   0.002288    0.01659 1.929E-015 1.399E-014
471                 13.79     0.9992   0.002302    0.01669 1.286E-015 9.327E-015
472                 13.79     0.9992   0.002304     0.0167 2.034E-015 1.475E-014
473                 13.79     0.9992   0.002334    0.01693 2.274E-015 1.649E-014
474                 13.79     0.9992   0.002356    0.01709 1.64E-015 1.189E-014
475                 13.79     0.9992   0.002395    0.01737 1.929E-015 1.399E-014
476                 13.79     0.9992   0.002396    0.01737 1.64E-015 1.189E-014
477                 13.79     0.9992   0.002396    0.01738 2.274E-015 1.649E-014
478                 13.79     0.9992   0.002421    0.01756 2.034E-015 1.475E-014
479                 13.79     0.9992    0.00244    0.01769 2.652E-015 1.923E-014
480                 13.79     0.9992   0.002466    0.01788 2.652E-015 1.923E-014
481                 13.79     0.9992   0.002484    0.01802 1.64E-015 1.189E-014
482                 13.79     0.9992   0.002498    0.01812 2.274E-015 1.649E-014
483                 13.79     0.9992   0.002511    0.01821 2.274E-015 1.649E-014
484                 13.79     0.9992   0.002533    0.01837 1.875E-015 1.36E-014
485                 13.79     0.9992   0.002548    0.01848 2.274E-015 1.649E-014
486                 13.79     0.9992   0.002565     0.0186 1.929E-015 1.399E-014
487                 13.79     0.9992   0.002578     0.0187 1.875E-015 1.36E-014
488                 13.79     0.9992   0.002588    0.01877 2.034E-015 1.475E-014
489                 13.79     0.9992   0.002595    0.01882 1.929E-015 1.399E-014
424b               0.2197     0.9984  0.0001119    0.05093 2.247E-017 1.023E-014
433b               0.2195     0.9977   0.000171    0.07793 2.842E-017 1.295E-014
438b               0.2198     0.9989  0.0001303    0.05928 2.247E-017 1.022E-014
441b               0.2196     0.9984  0.0001138    0.05182 2.842E-017 1.294E-014
445b               0.2198     0.9991  5.54E-005     0.0252 2.247E-017 1.022E-014
449b               0.2198     0.9989  0.0001078    0.04906 3.178E-017 1.446E-014
454b               0.2189     0.9949  0.0003792     0.1733 2.247E-017 1.027E-014
456b               0.2185     0.9932  0.0004955     0.2268 3.553E-017 1.626E-014
457b               0.2197     0.9985  0.0001094    0.04978 2.132E-017 9.704E-015
462b               0.2189     0.9949  0.0003807     0.1739 2.132E-017 9.739E-015
465b               0.2197     0.9987  0.0001354    0.06162 3.623E-017 1.649E-014
465c               0.2198     0.9989  0.0001095    0.04982 2.132E-017  9.7E-015
465d               0.2194     0.9975  3.628E-005    0.01653 2.132E-017 9.714E-015
469b               0.2189     0.9949  0.0003792     0.1733 2.93E-017 1.339E-014
471b               0.2189     0.9949  0.0003799     0.1736 2.132E-017 9.739E-015
477b               0.2197     0.9988  4.466E-005    0.02032 2.93E-017 1.333E-014
480b               0.2196     0.9982  0.0001251    0.05699 2.132E-017 9.707E-015
489b               0.2189     0.9948  0.0003836     0.1753 2.842E-017 1.299E-014
