rede ufpa/UFPA_VLN.Txt

SYMMETRICAL COMPONENT VOLTAGES BY BUS (for 3-phase buses)

Bus              Mag:   V1 (kV)    p.u.     V2 (kV)   %V2/V1    V0 (kV)    %V0/V1

barrazero           7.966     0.9998  0.0003487   0.004377 1.202E-007 1.509E-006
cabinedemedicao     7.966     0.9998  0.0003514   0.004412 5.667E-007 7.114E-006
101                 7.966     0.9998  0.0003559   0.004468 2.628E-006 3.299E-005
102                 7.966     0.9998  0.0003679   0.004619 8.03E-006 0.0001008
103                 7.966     0.9998  0.0003648   0.004579 7.091E-006 8.902E-005
103a                7.966     0.9998  0.0003604   0.004524 7.598E-006 9.539E-005
104                 7.966     0.9998  0.0003601   0.004521 5.436E-006 6.825E-005
105                 7.965     0.9998  0.0003583   0.004498 5.396E-006 6.774E-005
106                 7.965     0.9998   0.000358   0.004495 5.425E-006 6.811E-005
107                 7.965     0.9998  0.0003575   0.004488 5.365E-006 6.736E-005
108                 7.965     0.9998  0.0003567   0.004477 5.323E-006 6.683E-005
109                 7.965     0.9998  0.0003556   0.004465 5.287E-006 6.637E-005
109a                7.965     0.9998  0.0003569    0.00448 5.589E-006 7.017E-005
110                 7.965     0.9998  0.0003555   0.004463 5.338E-006 6.701E-005
111                 7.965     0.9998  0.0003535   0.004438 5.294E-006 6.646E-005
112                 7.965     0.9998  0.0003525   0.004426 5.478E-006 6.877E-005
113                 7.965     0.9998  0.0003526   0.004426 5.272E-006 6.619E-005
114                 7.965     0.9998  0.0003519   0.004418 5.256E-006 6.599E-005
115                 7.965     0.9997  0.0003586   0.004502 3.929E-006 4.933E-005
116                 7.965     0.9997   0.000356   0.004469 3.794E-006 4.763E-005
117                 7.965     0.9997   0.000354   0.004444 3.696E-006 4.64E-005
118                 7.965     0.9997  0.0003525   0.004426 3.623E-006 4.549E-005
119                 7.965     0.9997  0.0003521   0.004421 4.033E-006 5.064E-005
120                 7.965     0.9997  0.0003601   0.004521 4.056E-006 5.091E-005
121                 7.965     0.9997  0.0003586   0.004502 3.629E-006 4.556E-005
122                 7.965     0.9997  0.0003587   0.004503 3.274E-006 4.11E-005
123                 7.965     0.9997  0.0003588   0.004504 3.069E-006 3.852E-005
124                 7.965     0.9997   0.000359   0.004507 2.735E-006 3.434E-005
125                 7.965     0.9997    0.00036   0.004519 1.918E-006 2.407E-005
126                 7.965     0.9997    0.00036    0.00452 2.017E-006 2.532E-005
127                 7.965     0.9997  0.0003609   0.004531 1.405E-006 1.765E-005
128                 7.965     0.9997  0.0003616    0.00454 1.23E-006 1.545E-005
129                 7.965     0.9997   0.000364    0.00457 1.293E-006 1.624E-005
130                 7.965     0.9997  0.0003621   0.004547 1.217E-006 1.528E-005
131                 7.965     0.9997  0.0003626   0.004552 1.206E-006 1.514E-005
132                 7.965     0.9997  0.0003633   0.004561 1.179E-006 1.48E-005
133                 7.965     0.9997  0.0003639   0.004569 1.212E-006 1.522E-005
134                 7.965     0.9997  0.0003633   0.004561 1.179E-006 1.48E-005
135                 7.965     0.9997  0.0003614   0.004538 1.03E-006 1.294E-005
136                 7.965     0.9997  0.0003611   0.004534 8.429E-007 1.058E-005
137                 7.965     0.9997  0.0003605   0.004526 7.614E-007 9.56E-006
138                 7.965     0.9997  0.0003614   0.004538 6.773E-007 8.504E-006
139                 7.965     0.9996  0.0003613   0.004536 7.108E-007 8.924E-006
140                 7.965     0.9996  0.0003612   0.004536 7.687E-007 9.651E-006
141                 7.965     0.9996  0.0003623   0.004549 7.935E-007 9.963E-006
142                 7.965     0.9996  0.0003633   0.004561 8.337E-007 1.047E-005
142a                7.965     0.9996  0.0003636   0.004565 8.217E-007 1.032E-005
143                 7.965     0.9996  0.0003637   0.004567 8.786E-007 1.103E-005
143a                7.965     0.9996  0.0003638   0.004567 8.305E-007 1.043E-005
143b                7.965     0.9996  0.0003655   0.004589 8.132E-007 1.021E-005
144                 7.965     0.9996  0.0003597   0.004517 8.442E-007 1.06E-005
145                 7.965     0.9996  0.0003597   0.004516 8.34E-007 1.047E-005
146                 7.964     0.9996  0.0003576    0.00449 9.815E-007 1.232E-005
147                 7.964     0.9996  0.0003579   0.004494 7.513E-007 9.434E-006
148                 7.964     0.9996   0.000358   0.004495 7.003E-007 8.793E-006
147a                7.964     0.9996   0.000358   0.004495 6.97E-007 8.752E-006
149                 7.965     0.9997  0.0003608    0.00453 7.449E-007 9.352E-006
150                 7.965     0.9997  0.0003628   0.004555 7.575E-007 9.51E-006
151                 7.965     0.9997  0.0003627   0.004554 7.577E-007 9.514E-006
152                 7.965     0.9997  0.0003627   0.004554 7.634E-007 9.585E-006
153                 7.965     0.9997  0.0003596   0.004515 7.748E-007 9.728E-006
154                 7.965     0.9997  0.0003595   0.004513 7.801E-007 9.795E-006
155                 7.965     0.9997   0.000359   0.004508 8.001E-007 1.005E-005
156                 7.965     0.9996  0.0003591   0.004508 8.821E-007 1.108E-005
157                 7.965     0.9996  0.0003594   0.004513 1.372E-006 1.723E-005
158                 7.965     0.9996  0.0003593   0.004512 1.506E-006 1.891E-005
158a                7.965     0.9996  0.0003594   0.004512 1.59E-006 1.996E-005
103ab              0.1269     0.9993  1.855E-005    0.01461 1.027E-005  0.008095
103abc             0.1269     0.9993  1.855E-005    0.01461 1.027E-005  0.008095
103b               0.1269     0.9994  5.883E-005    0.04635 2.598E-005   0.02047
106b               0.1269     0.9992  1.875E-005    0.01477 1.028E-005  0.008096
107b               0.1269     0.9994  1.425E-005    0.01123 7.773E-006  0.006124
109b               0.1269      0.999  2.892E-005    0.02279 1.542E-005   0.01215
109ab              0.1269     0.9994  5.885E-005    0.04636 2.598E-005   0.02047
109abc             0.1269     0.9992  1.897E-005    0.01495 1.028E-005  0.008096
110b               0.1267     0.9978  2.664E-005    0.02102 1.151E-005  0.009083
112b               0.1269     0.9987  6.999E-005    0.05518 0.0001175   0.09263
113b               0.1269     0.9994  1.428E-005    0.01125 7.773E-006  0.006124
114b               0.1269     0.9995  1.278E-005    0.01007 6.608E-006  0.005205
119b               0.1268     0.9979  1.346E-005    0.01062 1.065E-005    0.0084
120b               0.1269     0.9994  5.887E-005    0.04638 2.598E-005   0.02047
122b               0.1269     0.9991  1.961E-005    0.01545 9.31E-006  0.007337
124b               0.1267     0.9979  1.354E-005    0.01068 1.065E-005    0.0084
126b               0.1269     0.9991  1.951E-005    0.01537 9.311E-006  0.007337
129b                0.127     0.9996   3.8E-005    0.02993 1.324E-005   0.01043
133b               0.1269     0.9992  3.075E-005    0.02423 7.479E-006  0.005893
142ab               0.127     0.9995  4.866E-005    0.03833 1.764E-005   0.01389
143ab              0.1269      0.999  2.205E-005    0.01738 7.047E-006  0.005554
143bc               0.127     0.9995  4.868E-005    0.03835 1.764E-005   0.01389
145b               0.1269     0.9992  1.521E-005    0.01198 7.914E-006  0.006236
146ab              0.1267     0.9976  4.025E-005    0.03176 1.473E-005   0.01163
147ab              0.1269     0.9987  2.778E-005     0.0219 9.402E-006  0.007412
148b               0.1267     0.9976  4.027E-005    0.03178 1.473E-005   0.01163
150b                0.127     0.9995  4.866E-005    0.03833 1.764E-005   0.01389
151b               0.1269      0.999  1.924E-005    0.01516 9.311E-006  0.007338
152b               0.1269      0.999  1.925E-005    0.01517 9.311E-006  0.007338
154b               0.1268     0.9982  3.121E-005    0.02462 1.109E-005   0.00875
156b               0.1269      0.999  1.691E-005    0.01333 7.414E-006  0.005843
158ab              0.1269     0.9988  2.708E-005    0.02135 1.231E-005  0.009703
201                 7.966     0.9998  0.0003614   0.004536 4.097E-006 5.143E-005
202                 7.966     0.9998  0.0003777   0.004742 9.801E-006  0.000123
203                 7.966     0.9998  0.0003791   0.004759 8.147E-006 0.0001023
204                 7.965     0.9998  0.0003803   0.004775 6.33E-006 7.947E-005
204a                7.965     0.9998  0.0003804   0.004776 6.532E-006  8.2E-005
205                 7.965     0.9997  0.0003819   0.004794 4.895E-006 6.145E-005
206                 7.965     0.9997  0.0003832   0.004811 3.63E-006 4.558E-005
207                 7.965     0.9997  0.0003836   0.004816 3.618E-006 4.542E-005
208                 7.965     0.9997   0.000384   0.004821 3.603E-006 4.524E-005
209                 7.965     0.9997  0.0003844   0.004826 3.582E-006 4.497E-005
210                 7.965     0.9997  0.0003851   0.004835 3.557E-006 4.466E-005
211                 7.965     0.9997  0.0003854   0.004839 3.596E-006 4.514E-005
212                 7.965     0.9997    0.00039   0.004896 5.952E-006 7.473E-005
212a                7.965     0.9997   0.000387   0.004859 6.602E-006 8.289E-005
213                 7.965     0.9997  0.0003938   0.004943 4.727E-006 5.935E-005
214                 7.965     0.9997  0.0003973   0.004989 3.586E-006 4.502E-005
215                 7.965     0.9997  0.0004001   0.005023 3.116E-006 3.912E-005
216                 7.965     0.9997  0.0004035   0.005065 2.528E-006 3.175E-005
217                 7.965     0.9997  0.0004076   0.005118 1.222E-006 1.534E-005
218                 7.965     0.9997  0.0004072   0.005112 1.262E-006 1.585E-005
219                 7.965     0.9996  0.0004102    0.00515 5.101E-007 6.405E-006
220                 7.964     0.9996  0.0004121   0.005174 6.755E-007 8.482E-006
221                 7.964     0.9996  0.0004108   0.005158 2.944E-007 3.696E-006
222                 7.964     0.9996  0.0004095   0.005141 9.046E-007 1.136E-005
223                 7.964     0.9996    0.00041   0.005148 3.064E-007 3.847E-006
224                 7.964     0.9996  0.0004096   0.005143 2.702E-007 3.392E-006
225                 7.964     0.9996  0.0004255   0.005343 2.978E-006 3.739E-005
226                 7.964     0.9996  0.0004463   0.005604 7.094E-006 8.907E-005
227                 7.964     0.9996  0.0004498   0.005648 6.701E-006 8.413E-005
228                 7.964     0.9996  0.0004507   0.005659 6.516E-006 8.182E-005
229                 7.964     0.9996  0.0004532    0.00569 7.012E-006 8.804E-005
230                 7.964     0.9996  0.0004555   0.005719 6.506E-006 8.169E-005
231                 7.964     0.9996  0.0004607   0.005784 6.231E-006 7.825E-005
232                 7.964     0.9995  0.0004724   0.005932 7.877E-006 9.89E-005
233                 7.964     0.9995  0.0004834    0.00607 7.504E-006 9.423E-005
234                 7.964     0.9995  0.0004826   0.006061 7.583E-006 9.522E-005
235                 7.964     0.9995  0.0005017   0.006299 9.044E-006 0.0001136
203b               0.1267     0.9973  0.0002093     0.1652 5.708E-005   0.04506
204b               0.1269     0.9989  8.53E-006   0.006723 3.309E-005   0.02608
211b               0.1269     0.9994  1.375E-005    0.01083 1.132E-005  0.008919
212b               0.1269     0.9989  5.314E-005    0.04188 8.824E-005   0.06954
212c               0.1269     0.9989  3.458E-005    0.02726 2.656E-006  0.002094
218b               0.1269     0.9993  1.336E-005    0.01053 7.774E-006  0.006125
219b               0.1265     0.9961  0.0001801     0.1423 3.263E-005   0.02579
222b               0.1268     0.9985  3.742E-005    0.02951 2.09E-005   0.01648
223b               0.1269     0.9992  1.342E-005    0.01057 7.774E-006  0.006125
224b               0.1269     0.9993  1.209E-005   0.009524 6.609E-006  0.005207
226b               0.1269     0.9993  1.232E-005   0.009704 6.609E-006  0.005207
228b               0.1263     0.9941  0.0001283     0.1016 5.602E-005   0.04437
229b               0.1263     0.9941  0.0001283     0.1016 5.602E-005   0.04437
234b               0.1269     0.9992  1.325E-005    0.01044 7.775E-006  0.006126
235b               0.1265      0.996  0.0001804     0.1426 3.263E-005    0.0258
301                 7.966     0.9998  0.0003631   0.004559 2.372E-006 2.978E-005
302                 7.966     0.9998  0.0003703   0.004648 1.877E-006 2.357E-005
303                 7.966     0.9998  0.0003832    0.00481 1.062E-006 1.333E-005
304                 7.966     0.9998  0.0003879    0.00487 6.223E-007 7.812E-006
305                 7.966     0.9998  0.0003968   0.004981 3.826E-007 4.803E-006
306                 7.966     0.9998   0.000402   0.005047 7.87E-007 9.881E-006
307                 7.966     0.9998  0.0004026   0.005054 8.399E-007 1.054E-005
308                 7.965     0.9998  0.0004106   0.005154 1.266E-006 1.59E-005
309                 7.965     0.9997  0.0004173   0.005238  1.6E-006 2.008E-005
310                 7.965     0.9997  0.0004184   0.005253 1.667E-006 2.093E-005
311                 7.965     0.9997  0.0004231   0.005312 1.84E-006 2.31E-005
312                 7.965     0.9997  0.0004244   0.005329 1.86E-006 2.336E-005
313                 7.965     0.9997  0.0004247   0.005332 1.847E-006 2.318E-005
314                 7.965     0.9997  0.0004254   0.005341 1.809E-006 2.271E-005
315                 7.965     0.9997  0.0004268   0.005358 1.989E-006 2.497E-005
316                 7.965     0.9997  0.0004277   0.005369 2.124E-006 2.666E-005
316a                7.965     0.9997  0.0004278   0.005371 2.109E-006 2.648E-005
317                 7.965     0.9997  0.0004295   0.005393 1.412E-006 1.773E-005
318                 7.965     0.9997    0.00043   0.005398 1.374E-006 1.725E-005
319                 7.965     0.9997  0.0004303   0.005402 1.384E-006 1.737E-005
320                 7.965     0.9997  0.0004305   0.005405 1.366E-006 1.715E-005
321                 7.965     0.9997    0.00043   0.005398 2.051E-006 2.575E-005
322                 7.965     0.9997  0.0004341    0.00545 2.127E-006 2.67E-005
323                 7.965     0.9997  0.0004356   0.005469 2.036E-006 2.557E-005
323a                7.965     0.9997  0.0004369   0.005485 1.972E-006 2.476E-005
324                 7.965     0.9997  0.0004363   0.005478 1.968E-006 2.471E-005
325                 7.965     0.9997  0.0004331   0.005437 2.106E-006 2.644E-005
326                 7.965     0.9997  0.0004332   0.005438 2.108E-006 2.646E-005
327                 7.965     0.9997  0.0004343   0.005452 2.14E-006 2.687E-005
328                 7.965     0.9997  0.0004357    0.00547 2.18E-006 2.737E-005
329                 7.965     0.9997  0.0004361   0.005475 2.191E-006 2.751E-005
330                 7.965     0.9997  0.0004367   0.005483 2.129E-006 2.673E-005
331                 7.965     0.9997  0.0004375   0.005493 2.212E-006 2.777E-005
332                 7.965     0.9997  0.0004383   0.005503 2.176E-006 2.732E-005
333                 7.965     0.9997  0.0004158    0.00522 1.737E-006 2.18E-005
334                 7.965     0.9997   0.000416   0.005223 1.758E-006 2.207E-005
335                 7.965     0.9997  0.0004221   0.005299 2.336E-006 2.933E-005
336                 7.965     0.9997  0.0004264   0.005353 2.588E-006 3.249E-005
337                 7.965     0.9997  0.0004264   0.005353 2.588E-006 3.249E-005
338                 7.965     0.9997  0.0004356   0.005469 3.115E-006 3.911E-005
338a                7.965     0.9997  0.0004359   0.005473 3.086E-006 3.875E-005
339                 7.965     0.9997  0.0004382   0.005502 3.261E-006 4.093E-005
340                 7.965     0.9997  0.0004401   0.005525 2.752E-006 3.455E-005
341                 7.965     0.9997  0.0004408   0.005534 3.423E-006 4.297E-005
342                 7.965     0.9997  0.0004418   0.005546 3.403E-006 4.272E-005
342a                7.965     0.9997  0.0004421   0.005551 3.382E-006 4.246E-005
343                 7.965     0.9997  0.0004413    0.00554 3.361E-006 4.22E-005
344                 7.965     0.9997  0.0004417   0.005545 3.313E-006 4.159E-005
345                 7.965     0.9997  0.0004499   0.005648 3.796E-006 4.765E-005
346                 7.965     0.9997  0.0004568   0.005735 4.067E-006 5.105E-005
346a                7.965     0.9997  0.0004598   0.005773 3.913E-006 4.913E-005
...
